28
conf-7
 C   3.29360385  -3.41558664  -10.72680583
 C   2.43018307  -4.11722448  -9.68169591
 C  -0.62520808  -3.66729442  -6.11683019
 C  -0.01295754  -2.85591202  -7.22869424
 C  -1.45032534  -4.83631715  -6.65500990
 C   4.33992574  -2.53259909  -10.09836107
 C   1.48217282  -3.15424026  -9.00025900
 C  -1.94560944  -5.68159167  -5.49853228
 N  -2.52629861  -4.34274090  -7.50122274
 O   4.84667803  -1.64592965  -10.98063002
 O   4.71778994  -2.61062835  -8.95636181
 O   1.26839413  -2.01884208  -9.34530065
 O  -0.93497284  -6.32117960  -4.87582766
 O  -3.09421291  -5.77661625  -5.14568333
 O   0.87235194  -3.72823501  -7.95499931
 H   2.68018510  -2.82002724  -11.40483046
 H   3.82674971  -4.15148517  -11.33487319
 H   3.05316053  -4.60087938  -8.92590452
 H   1.82244780  -4.89873600  -10.14523077
 H   0.17059085  -4.03959494  -5.47094759
 H  -1.26691296  -3.01836120  -5.51497580
 H  -0.75021831  -2.47182134  -7.93129276
 H   0.56166535  -2.01104381  -6.84606972
 H  -0.78968438  -5.46073514  -7.25750592
 H  -2.98030285  -5.11781879  -7.96738328
 H  -3.24185507  -3.92497466  -6.91559264
 H   5.51276551  -1.13874441  -10.50019430
 H  -1.34011143  -6.81843958  -4.15369946
