28
conf-1
 C   2.95412142  -1.96217950  -9.02957001
 C   1.71691083  -1.85247360  -8.14518927
 C  -1.67185321  -4.71270941  -8.16101625
 C  -1.69947316  -3.22640727  -8.47009302
 C  -1.38946213  -5.04161522  -6.68638100
 C   3.52381662  -3.35012557  -9.00130058
 C   0.57569095  -2.67868277  -8.69666763
 C   0.05408445  -4.74491961  -6.31945235
 N  -2.35032483  -4.38932850  -5.80993219
 O   4.36987323  -3.59040867  -10.01649918
 O   3.27860056  -4.16722248  -8.14589607
 O   0.66067062  -3.39862172  -9.66322902
 O   0.89898769  -5.38629740  -7.12900525
 O   0.39756571  -4.03209457  -5.40763314
 O  -0.55272428  -2.50388484  -7.98891610
 H   3.73710176  -1.28535458  -8.67891955
 H   2.72728499  -1.69433733  -10.06234034
 H   1.36432467  -0.82364610  -8.06492386
 H   1.92688715  -2.20833125  -7.13219576
 H  -2.65841574  -5.11266971  -8.41110935
 H  -0.94419355  -5.21759027  -8.79437622
 H  -1.78394198  -3.06180504  -9.54483965
 H  -2.54396793  -2.75100358  -7.96660556
 H  -1.50547693  -6.12577167  -6.57446552
 H  -2.30180082  -4.80799216  -4.88981012
 H  -2.07724236  -3.42154461  -5.66945665
 H   4.69480917  -4.49331391  -9.90542898
 H   1.79644908  -5.05088375  -6.95784151
